<?xml version="1.0" encoding="UTF-8"?>

<!-- generated on 2025-07-07 13:18:15.236519 by netdiff.py v1_23_1+0000-676720d13f6
<configuration>
    <source value="sous_reseau.net.xml"/>
    <dest value="sous_reseau_corrected.net.xml"/>
    <outprefix value="diff"/>
</configuration>
-->

<nodes version="1.20" xmlns:xsi="http://www.w3.org/2001/XMLSchema-instance" xsi:noNamespaceSchemaLocation="http://sumo.dlr.de/xsd/nodes_file.xsd">
    <!-- Deleted Elements -->
    <delete id="773136484"/>
    <delete id="773136485"/>
    <!-- Created Elements -->
    <node id="cluster773136484_773136485" type="priority" x="9694.72" y="6987.83"/>
    <!-- Changed Elements -->
    <node id="773137553" type="priority"/>  <!-- missingAttributes: tl,tlType -->
    <node id="cluster_145356_3132141668_3132141669_3132141670_#4more" type="dead_end"/>  <!-- missingAttributes: tl,tlType -->
    <node id="cluster_369020988_773137550_773137552_9324672" tl="GS_cluster_369020988_773137550_773137552_9324672" type="traffic_light"/>
</nodes>
