<?xml version="1.0" encoding="UTF-8"?>

<!-- generated on 2025-07-07 13:18:15.255602 by netdiff.py v1_23_1+0000-676720d13f6
<configuration>
    <source value="sous_reseau.net.xml"/>
    <dest value="sous_reseau_corrected.net.xml"/>
    <outprefix value="diff"/>
</configuration>
-->

<tlLogics version="1.20" xmlns:xsi="http://www.w3.org/2001/XMLSchema-instance" xsi:noNamespaceSchemaLocation="http://sumo.dlr.de/xsd/tllogic_file.xsd">
    <!-- Deleted Elements -->
    <!-- implicit via changed node type: <delete id="GS_773137553" programID="0"/> -->
    <!-- implicit via changed node type: <delete id="GS_cluster_145356_3132141668_3132141669_3132141670_#4more" programID="0"/> -->
    <delete from="62019359#0" fromLane="0" to="155472438" toLane="0" linkIndex="2" tl="GS_773137553"/>
    <delete from="62019359#0" fromLane="1" to="155472438" toLane="1" linkIndex="3" tl="GS_773137553"/>
    <delete from="62019360#0" fromLane="0" to="155472438" toLane="0" linkIndex="0" tl="GS_773137553"/>
    <delete from="62019360#0" fromLane="1" to="155472438" toLane="1" linkIndex="1" tl="GS_773137553"/>
    <delete from="62020116#0" fromLane="1" to="62017785#0" toLane="2" linkIndex="8" tl="GS_cluster_145356_3132141668_3132141669_3132141670_#4more"/>
    <!-- Created Elements -->
    <tlLogic id="GS_cluster_369020988_773137550_773137552_9324672" programID="0" offset="0" type="static">
        <phase duration="33" state="rrrGGgrrrrGGg"/>
        <phase duration="3" state="rrryygrrrryyg"/>
        <phase duration="6" state="rrrrrGrrrrrrG"/>
        <phase duration="3" state="rrrrryrrrrrry"/>
        <phase duration="33" state="GGgrrrGGGgrrr"/>
        <phase duration="3" state="yygrrryyygrrr"/>
        <phase duration="6" state="rrGrrrrrrGrrr"/>
        <phase duration="3" state="rryrrrrrryrrr"/>
    </tlLogic>
    <!-- Changed Elements -->
    <!-- Created Elements -->
    <connection from="4306783#0" fromLane="0" to="4306783#2" toLane="0" linkIndex="3" tl="GS_cluster_369020988_773137550_773137552_9324672"/>
    <connection from="4306783#0" fromLane="1" to="4306783#2" toLane="1" linkIndex="4" tl="GS_cluster_369020988_773137550_773137552_9324672"/>
    <connection from="4306783#0" fromLane="1" to="62018674#0" toLane="1" linkIndex="5" tl="GS_cluster_369020988_773137550_773137552_9324672"/>
    <connection from="62018670#0" fromLane="0" to="62018674#0" toLane="0" linkIndex="0" tl="GS_cluster_369020988_773137550_773137552_9324672"/>
    <connection from="62018670#0" fromLane="1" to="62018674#0" toLane="1" linkIndex="1" tl="GS_cluster_369020988_773137550_773137552_9324672"/>
    <connection from="62018670#0" fromLane="2" to="62017783#0" toLane="1" linkIndex="2" tl="GS_cluster_369020988_773137550_773137552_9324672"/>
    <connection from="62019354#0" fromLane="0" to="62017783#0" toLane="0" linkIndex="6" tl="GS_cluster_369020988_773137550_773137552_9324672"/>
    <connection from="62019354#0" fromLane="0" to="62019359#0" toLane="0" linkIndex="7" tl="GS_cluster_369020988_773137550_773137552_9324672"/>
    <connection from="62019354#0" fromLane="1" to="62019359#0" toLane="1" linkIndex="8" tl="GS_cluster_369020988_773137550_773137552_9324672"/>
    <connection from="62019354#0" fromLane="1" to="4306783#2" toLane="1" linkIndex="9" tl="GS_cluster_369020988_773137550_773137552_9324672"/>
    <connection from="746182888#0" fromLane="0" to="62017783#0" toLane="0" linkIndex="10" tl="GS_cluster_369020988_773137550_773137552_9324672"/>
    <connection from="746182888#0" fromLane="1" to="62017783#0" toLane="1" linkIndex="11" tl="GS_cluster_369020988_773137550_773137552_9324672"/>
    <connection from="746182888#0" fromLane="2" to="62019359#0" toLane="1" linkIndex="12" tl="GS_cluster_369020988_773137550_773137552_9324672"/>
    <!-- Changed Elements -->
</tlLogics>
