<?xml version="1.0" encoding="UTF-8"?>

<!-- generated on 2025-08-07 16:00:04 by Eclipse SUMO netconvert Version 1.23.1
<netconvertConfiguration xmlns:xsi="http://www.w3.org/2001/XMLSchema-instance" xsi:noNamespaceSchemaLocation="http://sumo.dlr.de/xsd/netconvertConfiguration.xsd">

    <input>
        <sumo-net-file value="brussels_exp.net.xml"/>
    </input>

    <output>
        <plain-output-prefix value="C"/>
    </output>

    <processing>
        <geometry.min-radius.fix.railways value="false"/>
        <geometry.avoid-overlap value="false"/>
        <geometry.max-grade.fix value="false"/>
        <offset.disable-normalization value="true"/>
        <lefthand value="0"/>
    </processing>

    <junctions>
        <no-turnarounds value="true"/>
        <junctions.corner-detail value="5"/>
        <junctions.limit-turn-speed value="5.50"/>
        <rectangular-lane-cut value="0"/>
    </junctions>

    <pedestrian>
        <walkingareas value="0"/>
    </pedestrian>

</netconvertConfiguration>
-->

<nodes version="1.20" xmlns:xsi="http://www.w3.org/2001/XMLSchema-instance" xsi:noNamespaceSchemaLocation="http://sumo.dlr.de/xsd/nodes_file.xsd">
    <location netOffset="-587522.20,-5624367.37" convBoundary="0.00,0.00,17338.92,16726.69" origBoundary="4.242460,50.762963,4.487720,50.914499" projParameter="+proj=utm +zone=31 +ellps=WGS84 +datum=WGS84 +units=m +no_defs"/>

    <node id="10001269765" x="9372.89" y="10972.17" type="priority"/>
    <node id="10001269766" x="9364.71" y="10972.82" type="right_before_left"/>
    <node id="10001269776" x="9381.99" y="10983.66" type="priority"/>
    <node id="10001340264" x="8363.00" y="9727.56" type="priority"/>
    <node id="10001365985" x="8826.42" y="7963.57" type="priority"/>
    <node id="10003552811" x="9742.02" y="6526.73" type="priority"/>
    <node id="10003552815" x="9715.97" y="6538.12" type="priority" fringe="inner">
        <param key="buffer_stop" value="true"/>
    </node>
    <node id="10003552816" x="9735.27" y="6519.90" type="right_before_left"/>
    <node id="10003621117" x="9741.83" y="6513.71" type="priority" fringe="inner">
        <param key="buffer_stop" value="true"/>
    </node>
    <node id="10004097923" x="1357.52" y="5307.30" type="priority"/>
    <node id="10004100938" x="4197.80" y="6173.42" type="priority"/>
    <node id="10004100939" x="4184.69" y="6129.58" type="priority"/>
    <node id="10004110219" x="4276.63" y="5900.82" type="priority"/>
    <node id="10004180476" x="2781.72" y="8440.78" type="priority"/>
    <node id="100044311" x="3675.08" y="9096.77" type="right_before_left"/>
    <node id="100044312" x="3703.49" y="9011.96" type="priority"/>
    <node id="10004850518" x="9840.51" y="2784.05" type="priority"/>
    <node id="100052019" x="3521.43" y="8930.69" type="priority"/>
    <node id="100052020" x="3436.78" y="9035.79" type="right_before_left"/>
    <node id="100052025" x="3339.05" y="9149.83" type="traffic_light" tl="GS_100052025" tlType="actuated"/>
    <node id="10005305140" x="14832.10" y="7171.00" type="priority" fringe="inner">
        <param key="buffer_stop" value="true"/>
    </node>
    <node id="1000829650" x="10932.10" y="10585.44" type="right_before_left"/>
    <node id="10008601141" x="9159.14" y="4716.62" type="priority"/>
    <node id="10014614174" x="7465.45" y="8168.05" type="priority"/>
    <node id="10015003895" x="7453.22" y="8151.00" type="priority"/>
    <node id="10015479689" x="6947.10" y="11324.60" type="priority"/>
    <node id="10017342833" x="7282.93" y="7897.54" type="priority"/>
    <node id="10019828572" x="6926.76" y="8226.46" type="priority"/>
    <node id="10024226633" x="8162.10" y="9210.19" type="priority" fringe="inner">
        <param key="buffer_stop" value="true"/>
    </node>
    <node id="10024497677" x="8237.84" y="12087.59" type="priority"/>
    <node id="10024535866" x="8250.70" y="12114.85" type="priority"/>
    <node id="10024535870" x="8333.10" y="12073.25" type="right_before_left"/>
    <node id="10024655451" x="6903.84" y="7675.74" type="right_before_left"/>
    <node id="10024655453" x="6920.30" y="7623.60" type="priority"/>
    <node id="10024868860" x="6708.42" y="10077.67" type="priority"/>
    <node id="10025645173" x="13761.09" y="8756.31" type="priority"/>
    <node id="10029269225" x="11556.96" y="13580.63" type="priority"/>
    <node id="10030205144" x="5134.39" y="13951.75" type="priority"/>
    <node id="10031051503" x="10463.73" y="5929.65" type="right_before_left"/>
    <node id="10031646282" x="5134.71" y="14004.51" type="right_before_left"/>
    <node id="10031646283" x="5146.18" y="13994.36" type="priority"/>
    <node id="10031646284" x="5147.92" y="14034.87" type="priority"/>
    <node id="10031646288" x="5131.91" y="14000.84" type="priority"/>
    <node id="10032092319" x="5240.85" y="13781.03" type="priority"/>
    <node id="10032092320" x="5221.38" y="13798.43" type="right_before_left"/>
    <node id="10032092331" x="5154.20" y="13766.94" type="priority"/>
    <node id="10032092332" x="5150.73" y="13783.16" type="priority"/>
    <node id="1003604322" x="13448.29" y="13065.62" type="priority"/>
    <node id="1003605093" x="12819.14" y="12857.52" type="priority"/>
    <node id="100372788" x="9656.34" y="6562.12" type="priority"/>
    <node id="10037889252" x="5272.16" y="13778.98" type="right_before_left"/>
    <node id="10037889256" x="5255.62" y="13736.10" type="priority"/>
    <node id="10037889260" x="5288.19" y="13772.33" type="priority" fringe="inner">
        <param key="buffer_stop" value="true"/>
    </node>
    <node id="10037912743" x="5292.17" y="13766.30" type="priority" fringe="inner">
        <param key="buffer_stop" value="true"/>
    </node>
    <node id="10037912746" x="5297.72" y="13746.11" type="right_before_left"/>
    <node id="10037912747" x="5285.55" y="13759.82" type="priority"/>
    <node id="10037912753" x="5275.65" y="13733.20" type="priority"/>
    <node id="10039663340" x="9139.82" y="13085.94" type="priority"/>
    <node id="100422113" x="9279.75" y="6790.35" type="priority"/>
    <node id="10046258387" x="8094.05" y="8477.75" type="priority"/>
    <node id="10046258388" x="8122.05" y="8506.73" type="priority" fringe="inner">
        <param key="buffer_stop" value="true"/>
    </node>
    <node id="10046698595" x="8086.27" y="8469.59" type="priority" fringe="inner">
        <param key="buffer_stop" value="true"/>
    </node>
    <node id="10048144857" x="8233.64" y="8559.91" type="priority"/>
    <node id="10053662872" x="9460.19" y="10824.64" type="right_before_left"/>
    <node id="10059573791" x="7863.62" y="15363.38" type="priority"/>
    <node id="10060918545" x="3467.94" y="5631.31" type="priority"/>
    <node id="10060918548" x="3439.87" y="5663.28" type="right_before_left"/>
    <node id="10060918552" x="3395.02" y="5712.10" type="priority" fringe="inner">
        <param key="buffer_stop" value="true"/>
    </node>
    <node id="10060918553" x="3439.49" y="5696.80" type="priority" fringe="inner">
        <param key="buffer_stop" value="true"/>
    </node>
    <node id="10064243975" x="3258.15" y="8272.45" type="priority"/>
    <node id="10065163968" x="5549.57" y="13555.66" type="priority"/>
    <node id="10065163969" x="5550.97" y="13614.50" type="priority"/>
    <node id="10065163970" x="5566.30" y="13574.87" type="right_before_left"/>
    <node id="10065163971" x="5550.04" y="13575.44" type="right_before_left"/>
    <node id="10078481899" x="6012.51" y="10705.29" type="priority"/>
    <node id="10079482862" x="13564.57" y="4907.08" type="priority"/>
    <node id="10079482867" x="13554.83" y="4877.95" type="right_before_left"/>
    <node id="10081446523" x="7438.99" y="9243.90" type="priority"/>
    <node id="10085030234" x="6544.17" y="9603.61" type="priority"/>
    <node id="10090266300" x="5232.69" y="12189.76" type="priority"/>
    <node id="10090275421" x="5348.02" y="12024.71" type="priority"/>
    <node id="10090275426" x="5290.48" y="12054.19" type="priority"/>
    <node id="10090275430" x="5323.44" y="12046.53" type="right_before_left"/>
    <node id="10092335941" x="5805.55" y="11584.03" type="right_before_left"/>
    <node id="10092335946" x="5806.29" y="11566.17" type="priority"/>
    <node id="10097239317" x="8578.01" y="9149.18" type="priority"/>
    <node id="10102934619" x="10048.47" y="6931.00" type="priority"/>
    <node id="10106306090" x="6429.53" y="2031.91" type="priority"/>
    <node id="1010778249" x="11784.57" y="16572.69" type="priority"/>
    <node id="1010792968" x="11449.43" y="16381.22" type="priority"/>
    <node id="10108875102" x="10278.87" y="7330.90" type="priority"/>
    <node id="10109827064" x="10672.10" y="3785.42" type="priority" fringe="inner">
        <param key="buffer_stop" value="true"/>
    </node>
    <node id="10109827065" x="10702.11" y="3795.56" type="right_before_left"/>
    <node id="10109827066" x="10680.00" y="3768.25" type="priority" fringe="inner">
        <param key="buffer_stop" value="true"/>
    </node>
    <node id="10109827067" x="10710.02" y="3779.81" type="right_before_left"/>
    <node id="10109827068" x="10688.96" y="3754.23" type="priority" fringe="inner">
        <param key="buffer_stop" value="true"/>
    </node>
    <node id="10109827069" x="10714.86" y="3764.57" type="right_before_left"/>
    <node id="10109827070" x="10694.71" y="3738.53" type="priority" fringe="inner">
        <param key="buffer_stop" value="true"/>
    </node>
    <node id="10109827071" x="10720.10" y="3748.01" type="right_before_left"/>
    <node id="10109827072" x="10699.00" y="3724.39" type="priority" fringe="inner">
        <param key="buffer_stop" value="true"/>
    </node>
    <node id="10109827073" x="10724.77" y="3733.29" type="right_before_left"/>
    <node id="10109827074" x="10703.75" y="3709.27" type="priority" fringe="inner">
        <param key="buffer_stop" value="true"/>
    </node>
    <node id="10109827075" x="10729.56" y="3718.15" type="right_before_left"/>
    <node id="10109827076" x="10715.15" y="3697.59" type="priority" fringe="inner">
        <param key="buffer_stop" value="true"/>
    </node>
    <node id="10109827077" x="10734.11" y="3703.80" type="right_before_left"/>
    <node id="10109827078" x="10722.91" y="3684.06" type="priority" fringe="inner">
        <param key="buffer_stop" value="true"/>
    </node>
    <node id="10109827079" x="10738.75" y="3689.15" type="right_before_left"/>
    <node id="10109827080" x="10727.40" y="3670.05" type="priority" fringe="inner">
        <param key="buffer_stop" value="true"/>
    </node>
    <node id="10109827081" x="10743.27" y="3674.89" type="right_before_left"/>
    <node id="10109827082" x="10730.93" y="3636.27" type="priority" fringe="inner">
        <param key="buffer_stop" value="true"/>
    </node>
    <node id="10109827083" x="10752.69" y="3642.89" type="right_before_left"/>
    <node id="10109827084" x="10731.45" y="3655.20" type="priority" fringe="inner">
        <param key="buffer_stop" value="true"/>
    </node>
    <node id="10117533441" x="15335.62" y="9699.84" type="priority"/>
    <node id="10121618006" x="8946.88" y="14711.58" type="priority"/>
    <node id="10121618010" x="8982.27" y="14719.86" type="priority"/>
    <node id="10124659556" x="8692.15" y="11619.10" type="priority"/>
    <node id="10124659558" x="8726.82" y="11620.02" type="priority"/>
    <node id="10124659559" x="8704.52" y="11636.16" type="priority"/>
    <node id="10124659572" x="8736.87" y="11681.10" type="priority"/>
    <node id="10124659574" x="8770.72" y="11648.27" type="right_before_left"/>
    <node id="10124659577" x="8779.88" y="11656.50" type="right_before_left"/>
    <node id="10124659583" x="8853.62" y="11627.06" type="priority"/>
    <node id="10124884202" x="8604.68" y="10933.04" type="priority"/>
    <node id="10137315104" x="7480.41" y="10985.17" type="priority"/>
    <node id="10137315105" x="7519.40" y="10966.20" type="priority"/>
    <node id="10137398724" x="3994.72" y="5717.00" type="priority"/>
    <node id="10142433450" x="11498.85" y="5488.90" type="priority"/>
    <node id="10142433451" x="11494.77" y="5483.03" type="right_before_left"/>
    <node id="10147522897" x="6840.90" y="14148.99" type="priority"/>
    <node id="10147522898" x="6782.10" y="14150.06" type="priority"/>
    <node id="10147522899" x="6832.55" y="14102.38" type="priority"/>
    <node id="10147522900" x="6804.15" y="14112.01" type="priority"/>
    <node id="1015068479" x="10208.86" y="7778.62" type="priority" fringe="inner">
        <param key="buffer_stop" value="true"/>
    </node>
    <node id="10151859065" x="6608.10" y="6204.60" type="priority"/>
    <node id="10151859067" x="6583.54" y="6181.31" type="priority"/>
    <node id="10152405741" x="9991.56" y="6535.36" type="priority"/>
    <node id="10152405742" x="10005.88" y="6520.57" type="priority"/>
    <node id="10152425283" x="10331.85" y="6459.13" type="priority"/>
    <node id="10152425286" x="10335.81" y="6477.73" type="priority"/>
    <node id="10153832948" x="7643.85" y="7922.16" type="priority"/>
    <node id="10153832950" x="7634.50" y="7935.15" type="priority"/>
    <node id="10153854641" x="7692.46" y="7954.94" type="priority"/>
    <node id="10153854642" x="7679.76" y="7962.70" type="priority"/>
    <node id="10153854643" x="7682.41" y="7948.35" type="priority"/>
    <node id="10154708305" x="7609.17" y="7893.78" type="priority"/>
    <node id="10155695820" x="6679.14" y="7261.06" type="priority"/>
    <node id="10155695821" x="6609.44" y="7180.70" type="priority"/>
    <node id="10155695865" x="6660.48" y="7206.45" type="priority"/>
    <node id="10155695866" x="6675.68" y="7193.44" type="priority"/>
    <node id="10157813564" x="9073.82" y="10379.96" type="priority"/>
    <node id="10162400621" x="12713.87" y="10007.72" type="priority"/>
    <node id="10162400622" x="12697.57" y="10021.71" type="right_before_left"/>
    <node id="1016243423" x="10120.80" y="7776.12" type="priority"/>
    <node id="1016243470" x="10130.95" y="7764.98" type="right_before_left"/>
    <node id="1016243489" x="10142.00" y="7754.11" type="priority"/>
    <node id="10162491408" x="5422.38" y="13312.74" type="priority"/>
    <node id="10162491414" x="5314.61" y="13408.02" type="priority"/>
    <node id="10162524576" x="5397.20" y="13406.87" type="priority"/>
    <node id="1016345765" x="9407.60" y="8151.99" type="priority"/>
    <node id="10166119341" x="8334.71" y="9624.56" type="priority"/>
    <node id="10166853676" x="8865.86" y="7361.57" type="right_before_left"/>
    <node id="10166953027" x="8004.05" y="10853.93" type="priority"/>
    <node id="10169971309" x="5156.42" y="13193.20" type="right_before_left"/>
    <node id="10170583170" x="9261.16" y="10348.15" type="priority"/>
    <node id="10171875250" x="5724.70" y="7712.72" type="priority"/>
    <node id="10172458997" x="5818.22" y="7764.24" type="right_before_left"/>
    <node id="10172459006" x="5806.40" y="7686.85" type="priority"/>
    <node id="10174652870" x="5552.07" y="3434.08" type="right_before_left"/>
    <node id="10174652871" x="5597.67" y="3424.89" type="priority"/>
    <node id="10174652872" x="5555.83" y="3470.45" type="priority"/>
    <node id="10174652874" x="5548.04" y="3399.88" type="priority"/>
    <node id="10174652877" x="5563.67" y="3343.51" type="priority"/>
    <node id="10174652882" x="5537.22" y="3424.14" type="priority"/>
    <node id="10176418788" x="5593.43" y="13498.66" type="priority"/>
    <node id="10176418789" x="5592.70" y="13465.89" type="priority"/>
    <node id="1017720837" x="8131.60" y="9812.96" type="right_before_left"/>
    <node id="1017720842" x="8282.27" y="9830.29" type="right_before_left"/>
    <node id="1017720858" x="8241.29" y="9748.73" type="right_before_left"/>
    <node id="1017731186" x="8090.41" y="9901.83" type="priority"/>
    <node id="1017731191" x="8178.22" y="9871.19" type="priority"/>
    <node id="1017731200" x="8216.61" y="9979.94" type="right_before_left"/>
    <node id="1017758719" x="7751.60" y="9575.22" type="priority"/>
    <node id="1017758834" x="7720.16" y="9595.98" type="priority"/>
    <node id="1017799856" x="7639.44" y="9300.72" type="right_before_left"/>
    <node id="1017799869" x="7671.80" y="9339.38" type="right_before_left"/>
    <node id="1017799880" x="7752.29" y="9264.46" type="right_before_left"/>
    <node id="1017864001" x="7874.89" y="9295.50" type="priority"/>
    <node id="1017934376" x="7785.95" y="9701.61" type="priority"/>
    <node id="1017983681" x="7676.01" y="9431.75" type="priority"/>
    <node id="10181168265" x="8317.69" y="9937.53" type="priority"/>
    <node id="10182334919" x="6085.12" y="7694.21" type="priority"/>
    <node id="10186706870" x="14206.82" y="9395.25" type="priority"/>
    <node id="10196657284" x="7370.29" y="2172.92" type="priority"/>
    <node id="10197159340" x="5523.29" y="14316.85" type="priority"/>
    <node id="10197159344" x="5551.67" y="14332.14" type="priority"/>
    <node id="10202511917" x="6183.14" y="13520.83" type="priority"/>
    <node id="10202511923" x="6212.50" y="13540.52" type="priority"/>
    <node id="1020331427" x="6067.40" y="3644.58" type="priority"/>
    <node id="1020458483" x="7025.65" y="4199.17" type="priority"/>
    <node id="1020458791" x="7564.41" y="3559.53" type="right_before_left"/>
    <node id="1020458849" x="7980.31" y="3496.92" type="priority"/>
    <node id="1020458900" x="7093.46" y="4311.04" type="priority"/>
    <node id="10208045385" x="10105.31" y="9828.06" type="right_before_left"/>
    <node id="10209950970" x="12761.61" y="15193.25" type="right_before_left"/>
    <node id="10209950971" x="12680.67" y="15244.42" type="priority"/>
    <node id="10209950973" x="12758.39" y="15188.18" type="priority"/>
    <node id="10209950974" x="12775.44" y="15184.41" type="priority"/>
    <node id="10209950975" x="12832.80" y="15265.99" type="priority"/>
    <node id="10209950992" x="12809.25" y="15271.78" type="priority"/>
    <node id="10209950994" x="12742.78" y="15216.81" type="right_before_left"/>
    <node id="10209951000" x="12785.83" y="15286.46" type="right_before_left"/>
    <node id="10209951001" x="12737.71" y="15208.87" type="right_before_left"/>
    <node id="10209951002" x="12797.22" y="15279.42" type="right_before_left"/>
    <node id="10209951003" x="12754.52" y="15210.08" type="priority"/>
    <node id="10211565456" x="12688.67" y="15231.87" type="right_before_left"/>
    <node id="10211565458" x="12700.43" y="15224.50" type="priority"/>
    <node id="10211565459" x="12678.79" y="15190.00" type="right_before_left"/>
    <node id="10211565460" x="12712.09" y="15217.19" type="right_before_left"/>
    <node id="10211565461" x="12691.40" y="15183.59" type="priority"/>
    <node id="10211565462" x="12723.64" y="15209.94" type="priority"/>
    <node id="10211565463" x="12703.58" y="15177.39" type="right_before_left"/>
    <node id="10211565464" x="12735.44" y="15202.55" type="right_before_left"/>
    <node id="10211565465" x="12716.19" y="15170.99" type="priority"/>
    <node id="10211565466" x="12746.71" y="15195.48" type="right_before_left"/>
    <node id="10211565467" x="12728.20" y="15164.89" type="priority"/>
    <node id="10211565468" x="12725.62" y="15216.22" type="priority"/>
    <node id="10211565470" x="12714.20" y="15223.38" type="right_before_left"/>
    <node id="10211565471" x="12755.13" y="15288.09" type="right_before_left"/>
    <node id="10211565472" x="12702.93" y="15230.45" type="priority"/>
    <node id="10211565473" x="12737.05" y="15284.76" type="right_before_left"/>
    <node id="10211565474" x="12691.58" y="15237.58" type="right_before_left"/>
    <node id="10211739280" x="12510.76" y="4117.56" type="priority"/>
    <node id="10211739282" x="12480.47" y="4123.35" type="priority" fringe="inner">
        <param key="buffer_stop" value="true"/>
    </node>
    <node id="1021374428" x="7834.55" y="5400.97" type="priority"/>
    <node id="1021374431" x="7511.39" y="5276.75" type="priority"/>
    <node id="1021374432" x="7376.20" y="5172.70" type="priority"/>
    <node id="10215169235" x="11650.51" y="5883.05" type="priority"/>
    <node id="10216597407" x="11149.75" y="4482.94" type="priority"/>
    <node id="10216597408" x="11152.77" y="4440.64" type="priority" fringe="inner">
        <param key="buffer_stop" value="true"/>
    </node>
    <node id="10217247664" x="12008.59" y="3686.81" type="priority"/>
    <node id="10217247675" x="12016.55" y="3692.16" type="priority"/>
    <node id="10218140339" x="12524.95" y="4209.39" type="priority" fringe="inner">
        <param key="buffer_stop" value="true"/>
    </node>
    <node id="10218140384" x="12247.30" y="4369.31" type="priority" fringe="inner">
        <param key="buffer_stop" value="true"/>
    </node>
    <node id="10218140385" x="12217.75" y="4391.26" type="priority" fringe="inner">
        <param key="buffer_stop" value="true"/>
    </node>
    <node id="10220119607" x="11365.42" y="12797.53" type="priority"/>
    <node id="10220119608" x="11372.27" y="12820.05" type="priority"/>
    <node id="10222858631" x="4896.78" y="7873.42" type="priority"/>
    <node id="1022318431" x="10063.16" y="8128.60" type="priority"/>
    <node id="102250388" x="7675.94" y="10824.06" type="right_before_left"/>
    <node id="102251929" x="7853.74" y="10747.30" type="right_before_left"/>
    <node id="102252048" x="7900.65" y="10888.21" type="priority"/>
    <node id="1022570373" x="8245.46" y="5711.83" type="right_before_left"/>
    <node id="1022570396" x="8225.93" y="5689.45" type="right_before_left"/>
    <node id="1022570441" x="8836.95" y="4677.14" type="priority"/>
    <node id="102257320" x="8085.15" y="10668.41" type="priority"/>
    <node id="102260555" x="7725.91" y="10927.09" type="priority"/>
    <node id="10226103143" x="8347.34" y="9797.81" type="priority"/>
    <node id="10226103146" x="8335.54" y="9806.23" type="priority"/>
    <node id="10226103151" x="8351.79" y="9805.90" type="priority"/>
    <node id="10226103154" x="8340.67" y="9812.71" type="priority"/>
    <node id="102262371" x="6592.33" y="11584.50" type="right_before_left"/>
    <node id="102263164" x="6911.90" y="11581.82" type="right_before_left"/>
    <node id="102264032" x="6418.90" y="11638.53" type="priority"/>
    <node id="102266157" x="6415.31" y="11630.38" type="priority"/>
    <node id="102266160" x="6442.14" y="11605.48" type="priority"/>
    <node id="102266161" x="6455.38" y="11617.77" type="priority"/>
    <node id="102267573" x="6458.54" y="11591.61" type="priority"/>
    <node id="102270796" x="6042.99" y="11588.08" type="priority"/>
    <node id="102271884" x="6041.86" y="11600.04" type="priority"/>
    <node id="102271886" x="6025.25" y="11598.75" type="priority"/>
    <node id="102272655" x="5836.67" y="11564.97" type="priority"/>
    <node id="102272657" x="5853.31" y="11574.67" type="priority"/>
    <node id="102272658" x="5852.06" y="11586.98" type="priority"/>
    <node id="102272659" x="5839.51" y="11594.63" type="priority"/>
    <node id="102272660" x="5825.35" y="11585.87" type="priority"/>
    <node id="102276321" x="5069.54" y="11638.52" type="priority"/>
    <node id="1022777801" x="7682.56" y="5053.31" type="priority"/>
    <node id="1022777914" x="8099.43" y="4612.42" type="right_before_left"/>
    <node id="1022778289" x="7692.83" y="5070.15" type="right_before_left"/>
    <node id="1022778419" x="8143.60" y="4659.69" type="right_before_left"/>
    <node id="1022778428" x="8104.26" y="4651.99" type="priority"/>
    <node id="102279551" x="4644.36" y="12300.88" type="priority"/>
    <node id="10228082441" x="10910.07" y="5954.34" type="priority"/>
    <node id="10228082447" x="10966.45" y="5868.82" type="priority" fringe="inner">
        <param key="buffer_stop" value="true"/>
    </node>
    <node id="102280867" x="4646.97" y="12329.91" type="priority"/>
    <node id="102280871" x="4596.91" y="12341.02" type="priority"/>
    <node id="102280873" x="4591.35" y="12334.37" type="priority"/>
    <node id="102280879" x="4638.02" y="12293.76" type="priority"/>
    <node id="102280881" x="4649.14" y="12321.78" type="priority"/>
    <node id="102281959" x="4388.08" y="12568.23" type="priority"/>
    <node id="102283157" x="4380.15" y="12580.67" type="priority"/>
    <node id="102283158" x="4374.56" y="12576.97" type="priority"/>
    <node id="102283161" x="4382.26" y="12564.74" type="priority"/>
    <node id="102284226" x="4294.51" y="12739.49" type="priority"/>
    <node id="102284230" x="4034.43" y="12638.40" type="priority"/>
    <node id="102285184" x="4033.88" y="12616.66" type="priority"/>
    <node id="102285186" x="4041.13" y="12631.90" type="priority"/>
    <node id="10229467139" x="6591.10" y="7201.16" type="priority"/>
    <node id="10229467145" x="6597.74" y="7303.12" type="priority"/>
    <node id="10229467250" x="6546.45" y="7245.37" type="priority"/>
    <node id="10229467267" x="6548.40" y="7247.10" type="priority"/>
    <node id="10229467268" x="6554.54" y="7247.04" type="priority"/>
    <node id="10229467269" x="6547.53" y="7237.51" type="priority"/>
    <node id="10229467270" x="6553.75" y="7236.51" type="priority"/>
    <node id="10229467271" x="6556.56" y="7238.96" type="priority"/>
    <node id="10231596727" x="13131.31" y="12983.60" type="priority"/>
    <node id="10232387325" x="13095.73" y="12911.08" type="priority"/>
    <node id="10232886751" x="13047.36" y="12928.38" type="right_before_left"/>
    <node id="10232886765" x="13041.73" y="12949.00" type="right_before_left"/>
    <node id="10232886781" x="13022.51" y="13011.18" type="priority"/>
    <node id="1023495823" x="4740.26" y="8503.60" type="priority"/>
    <node id="1023726326-AddedOffRampNode" x="13287.70" y="10869.91" type="priority"/>
    <node id="10238815998" x="6288.40" y="13374.60" type="right_before_left"/>
    <node id="10238815999" x="6261.85" y="13360.34" type="priority"/>
    <node id="10240450088" x="10891.74" y="8175.60" type="priority"/>
    <node id="10240450090" x="10879.16" y="8162.54" type="priority"/>
    <node id="10242149681" x="7631.13" y="4718.30" type="priority" fringe="inner">
        <param key="buffer_stop" value="true"/>
    </node>
    <node id="10250495255" x="11149.24" y="12996.21" type="priority"/>
    <node id="10251507310" x="7339.56" y="11887.86" type="priority"/>
    <node id="10251507313" x="7249.04" y="11783.91" type="right_before_left"/>
    <node id="1025189434" x="11759.76" y="15677.86" type="traffic_light" tl="GS_1025189434" tlType="actuated"/>
    <node id="1025189437" x="11746.63" y="15681.56" type="right_before_left"/>
    <node id="1025189441" x="11717.07" y="15673.27" type="right_before_left"/>
    <node id="1025189471" x="11665.41" y="15698.49" type="right_before_left"/>
    <node id="1025189506" x="11815.98" y="15928.13" type="right_before_left"/>
    <node id="1025189509" x="11841.65" y="15924.28" type="priority"/>
    <node id="1025189605" x="11788.25" y="15967.97" type="right_before_left"/>
    <node id="1025189608" x="11765.78" y="15934.96" type="priority"/>
    <node id="1025189619" x="11791.56" y="16010.65" type="priority"/>
    <node id="1025189671" x="11621.09" y="15715.59" type="right_before_left"/>
    <node id="1025189743" x="11589.44" y="15720.32" type="right_before_left"/>
    <node id="1025189795" x="11602.55" y="15711.31" type="right_before_left"/>
    <node id="1025189821" x="11626.06" y="15741.69" type="right_before_left"/>
    <node id="1025189827" x="11660.34" y="15785.01" type="priority"/>
    <node id="10259767752" x="9637.88" y="6473.57" type="priority"/>
    <node id="10261327186" x="3325.72" y="6105.50" type="priority" fringe="inner">
        <param key="buffer_stop" value="true"/>
    </node>
    <node id="10261327187" x="3428.92" y="6031.05" type="right_before_left"/>
    <node id="10261327188" x="3346.75" y="6090.32" type="right_before_left"/>
    <node id="10265990465" x="7902.30" y="6764.70" type="priority" fringe="inner">
        <param key="buffer_stop" value="true"/>
    </node>
    <node id="10265990467" x="7918.93" y="6811.54" type="priority"/>
    <node id="10270132035" x="5699.10" y="15061.03" type="priority"/>
    <node id="10270132040" x="5662.26" y="15126.61" type="dead_end"/>
    <node id="10271310414" x="3280.22" y="12184.55" type="priority"/>
    <node id="10271310415" x="3249.41" y="12218.88" type="priority"/>
    <node id="1027170039" x="4515.48" y="8544.96" type="right_before_left"/>
    <node id="10271781446" x="4044.38" y="9859.68" type="priority"/>
    <node id="10271781449" x="4088.13" y="9896.49" type="priority"/>
    <node id="1027268192" x="4513.13" y="8565.38" type="right_before_left"/>
    <node id="1027268207" x="4489.78" y="8556.99" type="right_before_left"/>
    <node id="10276301162" x="8184.60" y="9042.01" type="priority"/>
    <node id="10279681064" x="12459.48" y="4283.25" type="priority"/>
    <node id="10279681065" x="12422.52" y="4315.86" type="priority" fringe="inner">
        <param key="buffer_stop" value="true"/>
    </node>
    <node id="10280687632" x="8369.41" y="9569.36" type="priority"/>
    <node id="10280731789" x="8332.30" y="9625.26" type="right_before_left"/>
    <node id="10280731790" x="8334.57" y="9632.65" type="priority"/>
    <node id="10280808869" x="5150.81" y="14172.40" type="priority"/>
    <node id="10280812432" x="5119.58" y="14202.36" type="priority"/>
    <node id="10280812433" x="5153.45" y="14255.24" type="priority"/>